<?xml version="1.0" encoding="UTF-8"?>

<!-- generated on 06/07/23 16:19:55 by Eclipse SUMO netedit Version 1.8.0
<configuration xmlns:xsi="http://www.w3.org/2001/XMLSchema-instance" xsi:noNamespaceSchemaLocation="http://sumo.dlr.de/xsd/netconvertConfiguration.xsd">

    <input>
        <sumo-net-file value="D:\code\Motion_Planning\Sumo_Merge_JingZan\JingZan.net.xml"/>
    </input>

    <output>
        <output-file value="D:\code\Motion_Planning\Sumo_Merge_JingZan\JingZan.net.xml"/>
    </output>

    <processing>
        <geometry.min-radius.fix.railways value="false"/>
        <geometry.max-grade.fix value="false"/>
        <offset.disable-normalization value="true"/>
        <lefthand value="false"/>
    </processing>

    <junctions>
        <no-turnarounds value="true"/>
        <junctions.corner-detail value="5"/>
        <junctions.limit-turn-speed value="5.5"/>
        <rectangular-lane-cut value="false"/>
    </junctions>

    <pedestrian>
        <walkingareas value="false"/>
    </pedestrian>

    <report>
        <aggregate-warnings value="5"/>
    </report>

</configuration>
-->

<net version="1.6" junctionCornerDetail="5" limitTurnSpeed="5.50" xmlns:xsi="http://www.w3.org/2001/XMLSchema-instance" xsi:noNamespaceSchemaLocation="http://sumo.dlr.de/xsd/net_file.xsd">

    <location netOffset="0.00,0.00" convBoundary="0.00,-25.74,567.79,0.00" origBoundary="-10000000000.00,-10000000000.00,10000000000.00,10000000000.00" projParameter="!"/>

    <edge id=":gneJ2_0" function="internal">
        <lane id=":gneJ2_0_0" index="0" speed="40.00" length="3.18" shape="171.69,-11.38 172.62,-11.28 173.27,-11.22 173.91,-11.20 174.86,-11.20"/>
    </edge>
    <edge id=":gneJ2_1" function="internal">
        <lane id=":gneJ2_1_0" index="0" speed="40.00" length="3.18" shape="171.68,-8.00 174.86,-8.00"/>
        <lane id=":gneJ2_1_1" index="1" speed="40.00" length="3.18" shape="171.68,-4.80 174.86,-4.80"/>
        <lane id=":gneJ2_1_2" index="2" speed="40.00" length="3.18" shape="171.68,-1.60 174.86,-1.60"/>
    </edge>
    <edge id=":gneJ3_0" function="internal">
        <lane id=":gneJ3_0_0" index="0" speed="40.00" length="8.00" shape="418.79,-8.00 426.79,-8.00"/>
        <lane id=":gneJ3_0_1" index="1" speed="40.00" length="8.00" shape="418.79,-4.80 426.79,-4.80"/>
        <lane id=":gneJ3_0_2" index="2" speed="40.00" length="8.00" shape="418.79,-1.60 426.79,-1.60"/>
    </edge>

    <edge id="gneE0" from="gneJ1" to="gneJ2" priority="-1">
        <lane id="gneE0_0" index="0" speed="40.00" length="171.68" shape="0.00,-8.00 171.68,-8.00"/>
        <lane id="gneE0_1" index="1" speed="40.00" length="171.68" shape="0.00,-4.80 171.68,-4.80"/>
        <lane id="gneE0_2" index="2" speed="40.00" length="171.68" shape="0.00,-1.60 171.68,-1.60"/>
    </edge>
    <edge id="gneE1" from="gneJ2" to="gneJ3" priority="-1">
        <lane id="gneE1_0" index="0" speed="40.00" length="243.93" acceleration="1" shape="174.86,-11.20 418.79,-11.20"/>
        <lane id="gneE1_1" index="1" speed="40.00" length="243.93" shape="174.86,-8.00 418.79,-8.00"/>
        <lane id="gneE1_2" index="2" speed="40.00" length="243.93" shape="174.86,-4.80 418.79,-4.80"/>
        <lane id="gneE1_3" index="3" speed="40.00" length="243.93" shape="174.86,-1.60 418.79,-1.60"/>
    </edge>
    <edge id="gneE2" from="gneJ3" to="gneJ4" priority="-1">
        <lane id="gneE2_0" index="0" speed="40.00" length="141.00" shape="426.79,-8.00 567.79,-8.00"/>
        <lane id="gneE2_1" index="1" speed="40.00" length="141.00" shape="426.79,-4.80 567.79,-4.80"/>
        <lane id="gneE2_2" index="2" speed="40.00" length="141.00" shape="426.79,-1.60 567.79,-1.60"/>
    </edge>
    <edge id="gneE3" from="gneJ5" to="gneJ2" priority="-1">
        <lane id="gneE3_0" index="0" speed="40.00" length="141.49" shape="31.10,-27.33 171.69,-11.38"/>
    </edge>

    <junction id="gneJ1" type="dead_end" x="0.00" y="0.00" incLanes="" intLanes="" shape="0.00,0.00 0.00,-9.60"/>
    <junction id="gneJ2" type="priority" x="257.79" y="0.00" incLanes="gneE3_0 gneE0_0 gneE0_1 gneE0_2" intLanes=":gneJ2_0_0 :gneJ2_1_0 :gneJ2_1_1 :gneJ2_1_2" shape="174.86,0.00 174.86,-12.80 173.75,-12.81 173.36,-12.82 172.97,-12.85 172.50,-12.90 171.87,-12.97 171.51,-9.79 171.68,-9.60 171.68,0.00">
        <request index="0" response="0000" foes="0000" cont="0"/>
        <request index="1" response="0000" foes="0000" cont="0"/>
        <request index="2" response="0000" foes="0000" cont="0"/>
        <request index="3" response="0000" foes="0000" cont="0"/>
    </junction>
    <junction id="gneJ3" type="priority" x="422.79" y="0.00" incLanes="gneE1_0 gneE1_1 gneE1_2 gneE1_3" intLanes=":gneJ3_0_0 :gneJ3_0_1 :gneJ3_0_2" shape="426.79,0.00 426.79,-9.60 423.76,-10.43 421.82,-11.97 420.58,-12.56 418.79,-12.80 418.79,0.00">
        <request index="0" response="000" foes="000" cont="0"/>
        <request index="1" response="000" foes="000" cont="0"/>
        <request index="2" response="000" foes="000" cont="0"/>
    </junction>
    <junction id="gneJ4" type="dead_end" x="567.79" y="0.00" incLanes="gneE2_0 gneE2_1 gneE2_2" intLanes="" shape="940.41,-9.60 940.41,0.00" customShape="1"/>
    <junction id="gneJ5" type="dead_end" x="30.92" y="-25.74" incLanes="" intLanes="" shape="30.92,-25.74 31.28,-28.92"/>

    <connection from="gneE0" to="gneE1" fromLane="0" toLane="1" via=":gneJ2_1_0" dir="s" state="M"/>
    <connection from="gneE0" to="gneE1" fromLane="1" toLane="2" via=":gneJ2_1_1" dir="s" state="M"/>
    <connection from="gneE0" to="gneE1" fromLane="2" toLane="3" via=":gneJ2_1_2" dir="s" state="M"/>
    <connection from="gneE1" to="gneE2" fromLane="1" toLane="0" via=":gneJ3_0_0" dir="s" state="M"/>
    <connection from="gneE1" to="gneE2" fromLane="2" toLane="1" via=":gneJ3_0_1" dir="s" state="M"/>
    <connection from="gneE1" to="gneE2" fromLane="3" toLane="2" via=":gneJ3_0_2" dir="s" state="M"/>
    <connection from="gneE3" to="gneE1" fromLane="0" toLane="0" via=":gneJ2_0_0" dir="s" state="M"/>

    <connection from=":gneJ2_0" to="gneE1" fromLane="0" toLane="0" dir="s" state="M"/>
    <connection from=":gneJ2_1" to="gneE1" fromLane="0" toLane="1" dir="s" state="M"/>
    <connection from=":gneJ2_1" to="gneE1" fromLane="1" toLane="2" dir="s" state="M"/>
    <connection from=":gneJ2_1" to="gneE1" fromLane="2" toLane="3" dir="s" state="M"/>
    <connection from=":gneJ3_0" to="gneE2" fromLane="0" toLane="0" dir="s" state="M"/>
    <connection from=":gneJ3_0" to="gneE2" fromLane="1" toLane="1" dir="s" state="M"/>
    <connection from=":gneJ3_0" to="gneE2" fromLane="2" toLane="2" dir="s" state="M"/>

</net>
